<?xml version="1.0" encoding="UTF-8"?>

<!-- generated on 2025-02-08 00:45:13 by Eclipse SUMO netconvert Version 1.21.0
<netconvertConfiguration xmlns:xsi="http://www.w3.org/2001/XMLSchema-instance" xsi:noNamespaceSchemaLocation="http://sumo.dlr.de/xsd/netconvertConfiguration.xsd">

    <input>
        <type-files value="${SUMO_HOME}\data\typemap\osmNetconvert.typ.xml,${SUMO_HOME}\data\typemap\osmNetconvertAerialway.typ.xml"/>
        <osm-files value="osm_bbox.osm.xml.gz"/>
    </input>

    <output>
        <output-file value="osm.net.xml.gz"/>
        <output.street-names value="true"/>
        <output.original-names value="true"/>
        <ptstop-output value="osm_stops.add.xml"/>
        <ptline-output value="osm_ptlines.xml"/>
    </output>

    <projection>
        <proj.utm value="true"/>
    </projection>

    <processing>
        <geometry.remove value="true"/>
        <roundabouts.guess value="true"/>
        <lefthand value="true"/>
    </processing>

    <tls_building>
        <tls.discard-simple value="true"/>
        <tls.join value="true"/>
        <tls.guess-signals value="true"/>
        <tls.default-type value="actuated"/>
    </tls_building>

    <ramp_guessing>
        <ramps.guess value="true"/>
    </ramp_guessing>

    <junctions>
        <junctions.join value="true"/>
        <junctions.corner-detail value="5"/>
    </junctions>

    <railway>
        <railway.topology.repair value="true"/>
    </railway>

</netconvertConfiguration>
-->

<net version="1.20" junctionCornerDetail="5" lefthand="true" limitTurnSpeed="5.50" xmlns:xsi="http://www.w3.org/2001/XMLSchema-instance" xsi:noNamespaceSchemaLocation="http://sumo.dlr.de/xsd/net_file.xsd">

    <location netOffset="-271466.26,-2113751.41" convBoundary="0.00,-0.00,1708.65,830.26" origBoundary="72.827617,19.104121,72.843942,19.111508" projParameter="+proj=utm +zone=43 +ellps=WGS84 +datum=WGS84 +units=m +no_defs"/>

    <type id="highway.footway" priority="1" numLanes="1" speed="2.78" allow="pedestrian" oneway="1" width="2.00"/>
    <type id="highway.living_street" priority="2" numLanes="1" speed="2.78" disallow="tram rail_urban rail rail_electric rail_fast ship container cable_car subway aircraft wheelchair scooter drone" oneway="0"/>
    <type id="highway.primary" priority="12" numLanes="2" speed="27.78" disallow="tram rail_urban rail rail_electric rail_fast ship container cable_car subway aircraft wheelchair scooter drone" oneway="0"/>
    <type id="highway.residential" priority="3" numLanes="1" speed="13.89" disallow="tram rail_urban rail rail_electric rail_fast ship container cable_car subway aircraft wheelchair scooter drone" oneway="0"/>
    <type id="highway.secondary" priority="11" numLanes="1" speed="27.78" disallow="tram rail_urban rail rail_electric rail_fast ship container cable_car subway aircraft wheelchair scooter drone" oneway="0"/>
    <type id="highway.secondary_link" priority="6" numLanes="1" speed="22.22" disallow="tram rail_urban rail rail_electric rail_fast ship container cable_car subway aircraft wheelchair scooter drone" oneway="0"/>
    <type id="highway.service" priority="1" numLanes="1" speed="5.56" allow="pedestrian delivery bicycle" oneway="0"/>
    <type id="highway.tertiary" priority="10" numLanes="1" speed="22.22" disallow="tram rail_urban rail rail_electric rail_fast ship container cable_car subway aircraft wheelchair scooter drone" oneway="0"/>

    <edge id=":10258932736_0" function="internal">
        <lane id=":10258932736_0_0" index="0" allow="pedestrian delivery bicycle" speed="5.17" length="5.16" shape="1194.42,443.12 1193.07,443.07 1192.03,442.58 1191.30,441.63 1190.89,440.24"/>
    </edge>
    <edge id=":10258932736_1" function="internal">
        <lane id=":10258932736_1_0" index="0" disallow="tram rail_urban rail rail_electric rail_fast ship container cable_car subway aircraft wheelchair scooter drone" speed="22.22" length="9.40" shape="1194.42,443.12 1185.08,444.24"/>
    </edge>
    <edge id=":10258932736_2" function="internal">
        <lane id=":10258932736_2_0" index="0" allow="pedestrian delivery bicycle" speed="5.00" length="5.05" shape="1187.73,440.74 1187.75,442.13 1187.32,443.18 1186.43,443.88 1185.08,444.24"/>
    </edge>
    <edge id=":10258932736_3" function="internal">
        <lane id=":10258932736_3_0" index="0" allow="pedestrian delivery bicycle" speed="3.65" length="4.67" shape="1187.73,440.74 1188.71,441.80 1189.56,442.07 1190.29,441.55 1190.89,440.24"/>
    </edge>
    <edge id=":10258932737_0" function="internal">
        <lane id=":10258932737_0_0" index="0" allow="pedestrian delivery bicycle" speed="3.65" length="4.67" shape="1177.01,353.39 1176.03,352.33 1175.18,352.06 1174.45,352.58 1173.85,353.89"/>
    </edge>
    <edge id=":10274112129_0" function="internal">
        <lane id=":10274112129_0_0" index="0" disallow="tram rail_urban rail rail_electric rail_fast ship container cable_car subway aircraft wheelchair scooter drone" speed="3.65" length="4.67" shape="1491.76,1.96 1491.16,0.65 1490.43,0.12 1489.58,0.39 1488.60,1.45"/>
    </edge>
    <edge id=":10274112136_0" function="internal">
        <lane id=":10274112136_0_0" index="0" disallow="tram rail_urban rail rail_electric rail_fast ship container cable_car subway aircraft wheelchair scooter drone" speed="17.61" length="3.51" shape="1621.68,219.94 1620.65,219.95 1619.93,219.91 1619.23,219.76 1618.24,219.46"/>
    </edge>
    <edge id=":10274112136_1" function="internal">
        <lane id=":10274112136_1_0" index="0" disallow="tram rail_urban rail rail_electric rail_fast ship container cable_car subway aircraft wheelchair scooter drone" speed="3.65" length="1.44" shape="1621.68,219.94 1620.50,220.77"/>
    </edge>
    <edge id=":10274112136_3" function="internal">
        <lane id=":10274112136_3_0" index="0" disallow="tram rail_urban rail rail_electric rail_fast ship container cable_car subway aircraft wheelchair scooter drone" speed="3.65" length="3.23" shape="1620.50,220.77 1620.13,221.58 1620.55,222.37 1621.77,223.14"/>
    </edge>
    <edge id=":10274112136_2" function="internal">
        <lane id=":10274112136_2_0" index="0" disallow="tram rail_urban rail rail_electric rail_fast ship container cable_car subway aircraft wheelchair scooter drone" speed="25.38" length="2.99" shape="1618.81,223.37 1619.66,223.15 1620.26,223.10 1620.88,223.12 1621.77,223.14"/>
    </edge>
    <edge id=":10274112137_0" function="internal">
        <lane id=":10274112137_0_0" index="0" disallow="tram rail_urban rail rail_electric rail_fast ship container cable_car subway aircraft wheelchair scooter drone" speed="5.51" length="5.26" shape="1610.72,224.29 1612.74,224.47 1614.22,224.78 1615.14,225.23 1615.51,225.82"/>
    </edge>
    <edge id=":10274112137_1" function="internal">
        <lane id=":10274112137_1_0" index="0" disallow="tram rail_urban rail rail_electric rail_fast ship container cable_car subway aircraft wheelchair scooter drone" speed="21.15" length="8.03" shape="1610.72,224.29 1613.10,224.41 1614.74,224.39 1616.35,224.11 1618.62,223.43"/>
    </edge>
    <edge id=":10279333657_0" function="internal">
        <lane id=":10279333657_0_0" index="0" disallow="tram rail_urban rail rail_electric rail_fast ship container cable_car subway aircraft wheelchair scooter drone" speed="6.51" length="8.93" shape="67.05,342.74 64.63,342.41 62.88,341.38 61.81,339.66 61.42,337.25"/>
    </edge>
    <edge id=":10279333657_1" function="internal">
        <lane id=":10279333657_1_0" index="0" disallow="tram rail_urban rail rail_electric rail_fast ship container cable_car subway aircraft wheelchair scooter drone" speed="3.65" length="4.67" shape="58.22,337.31 59.05,338.50 59.85,338.88 60.64,338.47 61.42,337.25"/>
    </edge>
    <edge id=":10279333659_0" function="internal">
        <lane id=":10279333659_0_0" index="0" disallow="tram rail_urban rail rail_electric rail_fast ship container cable_car subway aircraft wheelchair scooter drone" speed="13.89" length="9.70" shape="332.23,334.59 332.13,337.47 332.09,339.44 332.16,341.41 332.38,344.28"/>
    </edge>
    <edge id=":10279333659_1" function="internal">
        <lane id=":10279333659_1_0" index="0" disallow="tram rail_urban rail rail_electric rail_fast ship container cable_car subway aircraft wheelchair scooter drone" speed="7.23" length="11.85" shape="332.23,334.59 332.70,337.14 334.32,338.93 337.07,339.98 340.96,340.26"/>
    </edge>
    <edge id=":10279333659_2" function="internal">
        <lane id=":10279333659_2_0" index="0" disallow="tram rail_urban rail rail_electric rail_fast ship container cable_car subway aircraft wheelchair scooter drone" speed="3.65" length="4.67" shape="332.23,334.59 332.99,335.82 333.78,336.24 334.59,335.87 335.43,334.69"/>
    </edge>
    <edge id=":10279333659_3" function="internal">
        <lane id=":10279333659_3_0" index="0" disallow="tram rail_urban rail rail_electric rail_fast ship container cable_car subway aircraft wheelchair scooter drone" speed="5.85" length="7.48" shape="335.57,344.00 335.78,342.41 336.76,341.25 338.48,340.54 340.96,340.26"/>
    </edge>
    <edge id=":10279333659_4" function="internal">
        <lane id=":10279333659_4_0" index="0" disallow="tram rail_urban rail rail_electric rail_fast ship container cable_car subway aircraft wheelchair scooter drone" speed="13.89" length="9.32" shape="335.57,344.00 335.35,341.24 335.29,339.35 335.33,337.46 335.43,334.69"/>
    </edge>
    <edge id=":10279333659_5" function="internal">
        <lane id=":10279333659_5_0" index="0" disallow="tram rail_urban rail rail_electric rail_fast ship container cable_car subway aircraft wheelchair scooter drone" speed="3.65" length="4.67" shape="335.57,344.00 334.67,342.87 333.83,342.55 333.07,343.01 332.38,344.28"/>
    </edge>
    <edge id=":10279333659_6" function="internal">
        <lane id=":10279333659_6_0" index="0" disallow="tram rail_urban rail rail_electric rail_fast ship container cable_car subway aircraft wheelchair scooter drone" speed="6.27" length="7.80" shape="326.50,340.45 328.95,340.68 330.74,341.39 331.88,342.59 332.38,344.28"/>
    </edge>
    <edge id=":10279333659_7" function="internal">
        <lane id=":10279333659_7_0" index="0" disallow="tram rail_urban rail rail_electric rail_fast ship container cable_car subway aircraft wheelchair scooter drone" speed="22.22" length="14.46" shape="326.50,340.45 340.96,340.26"/>
    </edge>
    <edge id=":10279333659_8" function="internal">
        <lane id=":10279333659_8_0" index="0" disallow="tram rail_urban rail rail_electric rail_fast ship container cable_car subway aircraft wheelchair scooter drone" speed="7.47" length="11.87" shape="326.50,340.45 330.34,340.07 333.11,338.98 334.80,337.19 335.43,334.69"/>
    </edge>
    <edge id=":10279333660_0" function="internal">
        <lane id=":10279333660_0_0" index="0" disallow="tram rail_urban rail rail_electric rail_fast ship container cable_car subway aircraft wheelchair scooter drone" speed="5.99" length="7.66" shape="420.92,342.58 421.22,340.90 422.24,339.69 423.98,338.97 426.45,338.72"/>
    </edge>
    <edge id=":10279333660_1" function="internal">
        <lane id=":10279333660_1_0" index="0" disallow="tram rail_urban rail rail_electric rail_fast ship container cable_car subway aircraft wheelchair scooter drone" speed="5.56" length="9.44" shape="420.92,342.58 420.75,333.14"/>
    </edge>
    <edge id=":10279333660_2" function="internal">
        <lane id=":10279333660_2_0" index="0" disallow="tram rail_urban rail rail_electric rail_fast ship container cable_car subway aircraft wheelchair scooter drone" speed="3.65" length="4.67" shape="420.92,342.58 420.08,341.41 419.27,341.03 418.48,341.46 417.72,342.68"/>
    </edge>
    <edge id=":10279333660_3" function="internal">
        <lane id=":10279333660_3_0" index="0" disallow="tram rail_urban rail rail_electric rail_fast ship container cable_car subway aircraft wheelchair scooter drone" speed="6.10" length="7.73" shape="412.02,338.88 414.47,339.07 416.23,339.77 417.32,340.98 417.72,342.68"/>
    </edge>
    <edge id=":10279333660_4" function="internal">
        <lane id=":10279333660_4_0" index="0" disallow="tram rail_urban rail rail_electric rail_fast ship container cable_car subway aircraft wheelchair scooter drone" speed="22.22" length="14.43" shape="412.02,338.88 426.45,338.72"/>
    </edge>
    <edge id=":10279333660_5" function="internal">
        <lane id=":10279333660_5_0" index="0" disallow="tram rail_urban rail rail_electric rail_fast ship container cable_car subway aircraft wheelchair scooter drone" speed="7.35" length="11.72" shape="412.02,338.88 415.86,338.45 418.59,337.36 420.22,335.59 420.75,333.14"/>
    </edge>
    <edge id=":10279333660_6" function="internal">
        <lane id=":10279333660_6_0" index="0" disallow="tram rail_urban rail rail_electric rail_fast ship container cable_car subway aircraft wheelchair scooter drone" speed="5.56" length="9.51" shape="417.55,333.17 417.72,342.68"/>
    </edge>
    <edge id=":10279333660_7" function="internal">
        <lane id=":10279333660_7_0" index="0" disallow="tram rail_urban rail rail_electric rail_fast ship container cable_car subway aircraft wheelchair scooter drone" speed="7.35" length="11.76" shape="417.55,333.17 418.13,335.61 419.80,337.34 422.57,338.38 426.45,338.72"/>
    </edge>
    <edge id=":10279333660_8" function="internal">
        <lane id=":10279333660_8_0" index="0" disallow="tram rail_urban rail rail_electric rail_fast ship container cable_car subway aircraft wheelchair scooter drone" speed="3.65" length="4.67" shape="417.55,333.17 418.36,334.36 419.17,334.76 419.96,334.35 420.75,333.14"/>
    </edge>
    <edge id=":10279333661_0" function="internal">
        <lane id=":10279333661_0_0" index="0" disallow="tram rail_urban rail rail_electric rail_fast ship container cable_car subway aircraft wheelchair scooter drone" speed="6.00" length="7.51" shape="487.94,342.12 488.26,340.54 489.29,339.39 491.04,338.68 493.49,338.41"/>
    </edge>
    <edge id=":10279333661_1" function="internal">
        <lane id=":10279333661_1_0" index="0" disallow="tram rail_urban rail rail_electric rail_fast ship container cable_car subway aircraft wheelchair scooter drone" speed="13.89" length="9.22" shape="487.94,342.12 487.87,332.90"/>
    </edge>
    <edge id=":10279333661_2" function="internal">
        <lane id=":10279333661_2_0" index="0" disallow="tram rail_urban rail rail_electric rail_fast ship container cable_car subway aircraft wheelchair scooter drone" speed="3.65" length="4.67" shape="487.94,342.12 487.11,340.93 486.31,340.55 485.51,340.96 484.74,342.18"/>
    </edge>
    <edge id=":10279333661_3" function="internal">
        <lane id=":10279333661_3_0" index="0" disallow="tram rail_urban rail rail_electric rail_fast ship container cable_car subway aircraft wheelchair scooter drone" speed="6.04" length="7.52" shape="479.08,338.58 481.53,338.80 483.29,339.47 484.36,340.60 484.74,342.18"/>
    </edge>
    <edge id=":10279333661_4" function="internal">
        <lane id=":10279333661_4_0" index="0" disallow="tram rail_urban rail rail_electric rail_fast ship container cable_car subway aircraft wheelchair scooter drone" speed="22.22" length="14.42" shape="479.08,338.58 493.49,338.41"/>
    </edge>
    <edge id=":10279333661_5" function="internal">
        <lane id=":10279333661_5_0" index="0" disallow="tram rail_urban rail rail_electric rail_fast ship container cable_car subway aircraft wheelchair scooter drone" speed="7.34" length="11.77" shape="479.08,338.58 482.92,338.21 485.67,337.15 487.32,335.37 487.87,332.90"/>
    </edge>
    <edge id=":10279333661_6" function="internal">
        <lane id=":10279333661_6_0" index="0" disallow="tram rail_urban rail rail_electric rail_fast ship container cable_car subway aircraft wheelchair scooter drone" speed="13.89" length="9.28" shape="484.67,332.90 484.74,342.18"/>
    </edge>
    <edge id=":10279333661_7" function="internal">
        <lane id=":10279333661_7_0" index="0" disallow="tram rail_urban rail rail_electric rail_fast ship container cable_car subway aircraft wheelchair scooter drone" speed="7.28" length="11.75" shape="484.67,332.90 485.22,335.38 486.87,337.12 489.63,338.13 493.49,338.41"/>
    </edge>
    <edge id=":10279333661_8" function="internal">
        <lane id=":10279333661_8_0" index="0" disallow="tram rail_urban rail rail_electric rail_fast ship container cable_car subway aircraft wheelchair scooter drone" speed="3.65" length="4.67" shape="484.67,332.90 485.47,334.10 486.27,334.50 487.07,334.10 487.87,332.90"/>
    </edge>
    <edge id=":10279333662_0" function="internal">
        <lane id=":10279333662_0_0" index="0" disallow="tram rail_urban rail rail_electric rail_fast ship container cable_car subway aircraft wheelchair scooter drone" speed="6.11" length="7.83" shape="557.59,341.15 557.94,339.37 558.99,338.10 560.74,337.34 563.19,337.08"/>
    </edge>
    <edge id=":10279333662_1" function="internal">
        <lane id=":10279333662_1_0" index="0" disallow="tram rail_urban rail rail_electric rail_fast ship container cable_car subway aircraft wheelchair scooter drone" speed="13.89" length="9.66" shape="557.59,341.15 557.52,331.49"/>
    </edge>
    <edge id=":10279333662_2" function="internal">
        <lane id=":10279333662_2_0" index="0" disallow="tram rail_urban rail rail_electric rail_fast ship container cable_car subway aircraft wheelchair scooter drone" speed="3.65" length="4.67" shape="557.59,341.15 556.79,339.95 555.99,339.55 555.19,339.95 554.39,341.15"/>
    </edge>
    <edge id=":10279333662_3" function="internal">
        <lane id=":10279333662_3_0" index="0" disallow="tram rail_urban rail rail_electric rail_fast ship container cable_car subway aircraft wheelchair scooter drone" speed="6.05" length="7.79" shape="548.76,337.24 551.22,337.44 552.99,338.16 554.04,339.40 554.39,341.15"/>
    </edge>
    <edge id=":10279333662_4" function="internal">
        <lane id=":10279333662_4_0" index="0" disallow="tram rail_urban rail rail_electric rail_fast ship container cable_car subway aircraft wheelchair scooter drone" speed="22.22" length="14.43" shape="548.76,337.24 563.19,337.08"/>
    </edge>
    <edge id=":10279333662_5" function="internal">
        <lane id=":10279333662_5_0" index="0" disallow="tram rail_urban rail rail_electric rail_fast ship container cable_car subway aircraft wheelchair scooter drone" speed="7.35" length="11.75" shape="548.76,337.24 552.62,336.81 555.37,335.71 557.00,333.93 557.52,331.49"/>
    </edge>
    <edge id=":10279333662_6" function="internal">
        <lane id=":10279333662_6_0" index="0" disallow="tram rail_urban rail rail_electric rail_fast ship container cable_car subway aircraft wheelchair scooter drone" speed="13.89" length="9.62" shape="554.32,331.53 554.39,341.15"/>
    </edge>
    <edge id=":10279333662_7" function="internal">
        <lane id=":10279333662_7_0" index="0" disallow="tram rail_urban rail rail_electric rail_fast ship container cable_car subway aircraft wheelchair scooter drone" speed="7.36" length="11.73" shape="554.32,331.53 554.90,333.96 556.57,335.70 559.34,336.74 563.19,337.08"/>
    </edge>
    <edge id=":10279333662_8" function="internal">
        <lane id=":10279333662_8_0" index="0" disallow="tram rail_urban rail rail_electric rail_fast ship container cable_car subway aircraft wheelchair scooter drone" speed="3.65" length="4.67" shape="554.32,331.53 555.13,332.72 555.94,333.11 556.73,332.70 557.52,331.49"/>
    </edge>
    <edge id=":10279333663_0" function="internal">
        <lane id=":10279333663_0_0" index="0" disallow="tram rail_urban rail rail_electric rail_fast ship container cable_car subway aircraft wheelchair scooter drone" speed="18.05" length="8.83" shape="643.03,340.22 642.80,349.05"/>
    </edge>
    <edge id=":10279333663_1" function="internal">
        <lane id=":10279333663_1_0" index="0" disallow="tram rail_urban rail rail_electric rail_fast ship container cable_car subway aircraft wheelchair scooter drone" speed="6.71" length="10.04" shape="643.03,340.22 643.52,341.59 645.15,342.55 647.90,343.12 651.78,343.28"/>
    </edge>
    <edge id=":10279333663_2" function="internal">
        <lane id=":10279333663_2_0" index="0" disallow="tram rail_urban rail rail_electric rail_fast ship container cable_car subway aircraft wheelchair scooter drone" speed="3.65" length="4.67" shape="643.03,340.22 643.78,341.45 644.56,341.88 645.37,341.51 646.22,340.35"/>
    </edge>
    <edge id=":10279333663_3" function="internal">
        <lane id=":10279333663_3_0" index="0" disallow="tram rail_urban rail rail_electric rail_fast ship container cable_car subway aircraft wheelchair scooter drone" speed="6.66" length="9.31" shape="646.00,349.10 646.40,346.57 647.49,344.76 649.29,343.66 651.78,343.28"/>
    </edge>
    <edge id=":10279333663_4" function="internal">
        <lane id=":10279333663_4_0" index="0" disallow="tram rail_urban rail rail_electric rail_fast ship container cable_car subway aircraft wheelchair scooter drone" speed="18.05" length="8.76" shape="646.00,349.10 646.22,340.35"/>
    </edge>
    <edge id=":10279333663_5" function="internal">
        <lane id=":10279333663_5_0" index="0" disallow="tram rail_urban rail rail_electric rail_fast ship container cable_car subway aircraft wheelchair scooter drone" speed="3.65" length="1.44" shape="646.00,349.10 645.22,347.89"/>
    </edge>
    <edge id=":10279333663_9" function="internal">
        <lane id=":10279333663_9_0" index="0" disallow="tram rail_urban rail rail_electric rail_fast ship container cable_car subway aircraft wheelchair scooter drone" speed="3.65" length="3.23" shape="645.22,347.89 644.43,347.47 643.62,347.86 642.80,349.05"/>
    </edge>
    <edge id=":10279333663_6" function="internal">
        <lane id=":10279333663_6_0" index="0" disallow="tram rail_urban rail rail_electric rail_fast ship container cable_car subway aircraft wheelchair scooter drone" speed="6.42" length="9.04" shape="637.23,343.51 639.70,343.81 641.46,344.83 642.49,346.58 642.80,349.05"/>
    </edge>
    <edge id=":10279333663_7" function="internal">
        <lane id=":10279333663_7_0" index="0" disallow="tram rail_urban rail rail_electric rail_fast ship container cable_car subway aircraft wheelchair scooter drone" speed="22.22" length="14.55" shape="637.23,343.51 651.78,343.28"/>
    </edge>
    <edge id=":10279333663_8" function="internal">
        <lane id=":10279333663_8_0" index="0" disallow="tram rail_urban rail rail_electric rail_fast ship container cable_car subway aircraft wheelchair scooter drone" speed="7.02" length="7.38" shape="637.23,343.51 641.12,343.24 643.91,342.62 644.45,342.31"/>
    </edge>
    <edge id=":10279333663_10" function="internal">
        <lane id=":10279333663_10_0" index="0" disallow="tram rail_urban rail rail_electric rail_fast ship container cable_car subway aircraft wheelchair scooter drone" speed="7.02" length="2.78" shape="644.45,342.31 645.62,341.65 646.22,340.35"/>
    </edge>
    <edge id=":10279333664_0" function="internal">
        <lane id=":10279333664_0_0" index="0" disallow="tram rail_urban rail rail_electric rail_fast ship container cable_car subway aircraft wheelchair scooter drone" speed="5.79" length="6.80" shape="736.94,339.77 737.29,338.65 738.35,337.84 740.11,337.33 742.56,337.11"/>
    </edge>
    <edge id=":10279333664_1" function="internal">
        <lane id=":10279333664_1_0" index="0" disallow="tram rail_urban rail rail_electric rail_fast ship container cable_car subway aircraft wheelchair scooter drone" speed="5.56" length="8.14" shape="736.94,339.77 736.90,331.62"/>
    </edge>
    <edge id=":10279333664_2" function="internal">
        <lane id=":10279333664_2_0" index="0" disallow="tram rail_urban rail rail_electric rail_fast ship container cable_car subway aircraft wheelchair scooter drone" speed="3.65" length="4.67" shape="736.94,339.77 736.14,338.57 735.34,338.16 734.54,338.56 733.74,339.76"/>
    </edge>
    <edge id=":10279333664_3" function="internal">
        <lane id=":10279333664_3_0" index="0" disallow="tram rail_urban rail rail_electric rail_fast ship container cable_car subway aircraft wheelchair scooter drone" speed="5.72" length="6.73" shape="728.13,337.26 730.59,337.42 732.34,337.89 733.39,338.67 733.74,339.76"/>
    </edge>
    <edge id=":10279333664_4" function="internal">
        <lane id=":10279333664_4_0" index="0" disallow="tram rail_urban rail rail_electric rail_fast ship container cable_car subway aircraft wheelchair scooter drone" speed="22.22" length="14.43" shape="728.13,337.26 742.56,337.11"/>
    </edge>
    <edge id=":10279333664_5" function="internal">
        <lane id=":10279333664_5_0" index="0" disallow="tram rail_urban rail rail_electric rail_fast ship container cable_car subway aircraft wheelchair scooter drone" speed="7.30" length="11.75" shape="728.13,337.26 731.98,336.92 734.73,335.86 736.37,334.10 736.90,331.62"/>
    </edge>
    <edge id=":10279333664_6" function="internal">
        <lane id=":10279333664_6_0" index="0" disallow="tram rail_urban rail rail_electric rail_fast ship container cable_car subway aircraft wheelchair scooter drone" speed="5.56" length="8.11" shape="733.70,331.65 733.74,339.76"/>
    </edge>
    <edge id=":10279333664_7" function="internal">
        <lane id=":10279333664_7_0" index="0" disallow="tram rail_urban rail rail_electric rail_fast ship container cable_car subway aircraft wheelchair scooter drone" speed="7.29" length="11.75" shape="733.70,331.65 734.27,334.12 735.94,335.85 738.70,336.85 742.56,337.11"/>
    </edge>
    <edge id=":10279333664_8" function="internal">
        <lane id=":10279333664_8_0" index="0" disallow="tram rail_urban rail rail_electric rail_fast ship container cable_car subway aircraft wheelchair scooter drone" speed="3.65" length="4.67" shape="733.70,331.65 734.51,332.84 735.31,333.24 736.11,332.83 736.90,331.62"/>
    </edge>
    <edge id=":10279333665_0" function="internal">
        <lane id=":10279333665_0_0" index="0" disallow="tram rail_urban rail rail_electric rail_fast ship container cable_car subway aircraft wheelchair scooter drone" speed="22.22" length="9.42" shape="807.26,336.02 816.68,335.83"/>
    </edge>
    <edge id=":10279333665_1" function="internal">
        <lane id=":10279333665_1_0" index="0" disallow="tram rail_urban rail rail_electric rail_fast ship container cable_car subway aircraft wheelchair scooter drone" speed="6.08" length="7.78" shape="807.26,336.02 810.01,335.78 811.97,335.17 813.14,334.18 813.51,332.80"/>
    </edge>
    <edge id=":10279333665_2" function="internal">
        <lane id=":10279333665_2_0" index="0" disallow="tram rail_urban rail rail_electric rail_fast ship container cable_car subway aircraft wheelchair scooter drone" speed="6.07" length="7.78" shape="810.31,332.86 810.73,334.22 811.93,335.17 813.91,335.71 816.68,335.83"/>
    </edge>
    <edge id=":10279333665_3" function="internal">
        <lane id=":10279333665_3_0" index="0" disallow="tram rail_urban rail rail_electric rail_fast ship container cable_car subway aircraft wheelchair scooter drone" speed="3.65" length="4.67" shape="810.31,332.86 811.13,334.05 811.94,334.43 812.73,334.02 813.51,332.80"/>
    </edge>
    <edge id=":10279333670_0" function="internal">
        <lane id=":10279333670_0_0" index="0" disallow="tram rail_urban rail rail_electric rail_fast ship container cable_car subway aircraft wheelchair scooter drone" speed="22.22" length="11.36" shape="236.87,341.64 233.71,341.96 231.22,342.14 228.72,342.23 225.54,342.25"/>
    </edge>
    <edge id=":10279333670_1" function="internal">
        <lane id=":10279333670_1_0" index="0" disallow="tram rail_urban rail rail_electric rail_fast ship container cable_car subway aircraft wheelchair scooter drone" speed="6.28" length="7.91" shape="236.87,341.64 234.40,342.14 232.65,343.05 231.63,344.37 231.34,346.09"/>
    </edge>
    <edge id=":10279333670_2" function="internal">
        <lane id=":10279333670_2_0" index="0" disallow="tram rail_urban rail rail_electric rail_fast ship container cable_car subway aircraft wheelchair scooter drone" speed="6.45" length="9.09" shape="230.99,336.53 230.72,339.03 229.73,340.82 228.00,341.89 225.54,342.25"/>
    </edge>
    <edge id=":10279333670_3" function="internal">
        <lane id=":10279333670_3_0" index="0" disallow="tram rail_urban rail rail_electric rail_fast ship container cable_car subway aircraft wheelchair scooter drone" speed="27.78" length="9.57" shape="230.99,336.53 231.34,346.09"/>
    </edge>
    <edge id=":10279333671_0" function="internal">
        <lane id=":10279333671_0_0" index="0" disallow="tram rail_urban rail rail_electric rail_fast ship container cable_car subway aircraft wheelchair scooter drone" speed="6.97" length="10.63" shape="243.11,345.09 243.62,343.29 245.24,342.00 247.97,341.21 251.81,340.93"/>
    </edge>
    <edge id=":10279333671_1" function="internal">
        <lane id=":10279333671_1_0" index="0" disallow="tram rail_urban rail rail_electric rail_fast ship container cable_car subway aircraft wheelchair scooter drone" speed="27.78" length="9.98" shape="243.11,345.09 243.55,342.18 244.61,340.27 245.68,338.34 246.12,335.39"/>
        <lane id=":10279333671_1_1" index="1" disallow="tram rail_urban rail rail_electric rail_fast ship container cable_car subway aircraft wheelchair scooter drone" speed="27.78" length="9.98" shape="243.11,345.09 242.92,335.45"/>
    </edge>
    <edge id=":10279333671_3" function="internal">
        <lane id=":10279333671_3_0" index="0" disallow="tram rail_urban rail rail_electric rail_fast ship container cable_car subway aircraft wheelchair scooter drone" speed="5.93" length="7.80" shape="243.11,345.09 242.72,343.34 241.62,342.17 239.82,341.58 237.32,341.59"/>
    </edge>
    <edge id=":10279333677_0" function="internal">