<?xml version="1.0" encoding="UTF-8"?>

<!-- generated on 2025-02-08 00:45:13 by Eclipse SUMO polyconvert Version 1.21.0
<polyconvertConfiguration xmlns:xsi="http://www.w3.org/2001/XMLSchema-instance" xsi:noNamespaceSchemaLocation="http://sumo.dlr.de/xsd/polyconvertConfiguration.xsd">

    <input>
        <net-file value="osm.net.xml.gz"/>
        <osm-files value="osm_bbox.osm.xml.gz"/>
        <osm.keep-full-type value="true"/>
        <osm.merge-relations value="1"/>
        <type-file value="${SUMO_HOME}\data\typemap\osmPolyconvert.typ.xml"/>
    </input>

    <output>
        <output-file value="osm.poly.xml.gz"/>
    </output>

    <report>
        <verbose value="true"/>
    </report>

</polyconvertConfiguration>
-->

<additional xmlns:xsi="http://www.w3.org/2001/XMLSchema-instance" xsi:noNamespaceSchemaLocation="http://sumo.dlr.de/xsd/additional_file.xsd">
    <location netOffset="-271466.26,-2113751.41" convBoundary="-19.46,-5.75,1721.75,833.00" origBoundary="72.827511,19.104113,72.843986,19.111513" projParameter="+proj=utm +zone=43 +ellps=WGS84 +datum=WGS84 +units=m +no_defs"/>

    <poly id="1010994585" type="building.apartments" color="255,230,230" fill="1" layer="-1.00" shape="917.363776,799.131196 935.626098,801.728880 932.434655,820.271085 914.544089,817.093018 917.363776,799.131196"/>
    <poly id="1010994586" type="building.apartments" color="255,230,230" fill="1" layer="-1.00" shape="886.508986,791.961203 908.212685,796.221507 904.268203,815.149511 882.576168,811.830263 886.508986,791.961203"/>
    <poly id="1010994588" type="building.apartments" color="255,230,230" fill="1" layer="-1.00" shape="876.594964,819.267709 887.439142,821.204170 876.594964,819.267709"/>
    <poly id="1010994589" type="building.apartments" color="255,230,230" fill="1" layer="-1.00" shape="858.696186,816.278035 870.692268,818.587784 858.696186,816.278035"/>
    <poly id="1056855964" type="building.apartments" color="255,230,230" fill="1" layer="-1.00" shape="783.555412,710.044788 783.545924,716.932223 784.703560,716.917895 784.552084,719.986952 796.963967,721.018136 796.835266,722.525638 799.497279,722.448402 799.038218,727.879783 811.964535,728.804954 812.549314,722.475117 810.090314,715.142098 809.279421,715.107842 809.278198,710.756224 799.340125,709.749780 789.579151,707.744592 789.588468,708.497431 787.356292,708.436474 787.191387,710.420556 783.555412,710.044788"/>
    <poly id="1056855965" type="building.apartments" color="255,230,230" fill="1" layer="-1.00" shape="745.503140,712.409239 749.902336,725.974402 777.592318,728.300224 768.343295,708.129223 758.278437,708.785299 745.503140,712.409239"/>
    <poly id="1056855966" type="building.apartments" color="255,230,230" fill="1" layer="-1.00" shape="755.697179,733.243978 755.279788,737.789017 756.819029,742.243400 756.835611,743.583010 762.013557,744.382601 762.188328,747.447620 766.551819,747.925107 773.725695,746.706881 784.673885,746.837124 784.838351,743.967219 783.383473,740.375474 781.414344,738.606042 781.758074,734.061916 775.307413,733.333436 775.322349,734.540193 755.697179,733.243978"/>
    <poly id="1056855967" type="building.university" color="255,230,230" fill="1" layer="-1.00" shape="881.705770,483.663901 886.209420,584.814027 904.251010,584.015072 904.438785,588.984458 936.273689,588.568569 935.501185,569.510683 953.323151,568.825222 953.732719,481.078945 881.705770,483.663901"/>
    <poly id="1056855968" type="building.university" color="255,230,230" fill="1" layer="-1.00" shape="998.311550,459.998701 1013.414555,458.184278 1013.099062,455.652498 1025.522120,454.170183 1025.838843,456.801603 1077.096571,450.642697 1071.015141,400.591137 992.241796,410.057726 998.311550,459.998701"/>
    <poly id="1056855969" type="building.yes" color="255,230,230" fill="1" layer="-1.00" shape="914.696729,165.620240 914.912935,177.997004 945.852070,177.437271 945.614973,165.071841 914.696729,165.620240"/>
    <poly id="1056855970" type="building.apartments" color="255,230,230" fill="1" layer="-1.00" shape="889.495592,196.083247 907.355247,195.862376 907.199169,183.241266 889.339501,183.462135 889.495592,196.083247"/>
    <poly id="1056855971" type="building.apartments" color="255,230,230" fill="1" layer="-1.00" shape="891.739180,158.762161 909.598872,158.541297 909.442797,145.920187 891.583094,146.141050 891.739180,158.762161"/>
    <poly id="1056855972" type="building.apartments" color="255,230,230" fill="1" layer="-1.00" shape="1006.742608,153.464767 1020.886816,153.256719 1020.793928,128.709393 1006.321807,128.788618 1006.742608,153.464767"/>
    <poly id="1056855973" type="building.apartments" color="255,230,230" fill="1" layer="-1.00" shape="1028.865853,153.290973 1043.010059,153.082943 1042.917201,128.535620 1028.444945,128.603756 1028.865853,153.290973"/>
    <poly id="1056855974" type="building.apartments" color="255,230,230" fill="1" layer="-1.00" shape="986.051948,181.823393 1000.206660,181.615197 1000.113877,157.078939 985.641639,157.147111 986.051948,181.823393"/>
    <poly id="1056855975" type="building.apartments" color="255,230,230" fill="1" layer="-1.00" shape="1031.131319,183.292499 1045.275364,183.073397 1045.193166,158.537015 1030.710409,158.605281 1031.131319,183.292499"/>
    <poly id="1056855976" type="building.apartments" color="255,230,230" fill="1" layer="-1.00" shape="984.830705,80.477742 984.982616,92.766712 1007.374096,92.146673 1007.004062,80.092929 984.830705,80.477742"/>
    <poly id="1123427069" type="landuse.recreation_ground" color="194,194,130" fill="1" layer="-3.00" shape="1564.613898,383.147795 1585.390143,362.539792 1623.785849,351.270409 1630.400636,349.085028 1641.575523,408.574261 1584.049968,414.332722 1580.820855,404.274148 1572.238087,406.483818 1564.613898,383.147795"/>
    <poly id="1123427069#1" type="tourism.aquarium" color="207,245,201" fill="1" layer="-2.00" shape="1564.613898,383.147795 1585.390143,362.539792 1623.785849,351.270409 1630.400636,349.085028 1641.575523,408.574261 1584.049968,414.332722 1580.820855,404.274148 1572.238087,406.483818 1564.613898,383.147795"/>
    <poly id="1123427070" type="natural.water" color="181,209,209" fill="1" layer="-4.00" shape="1631.476738,394.536657 1629.357623,383.157803 1619.769852,385.811679 1619.084911,389.164108 1617.385016,392.152575 1614.845392,394.475956 1611.705226,395.898772 1608.278602,396.284278 1604.902019,395.606178 1601.891881,393.915937 1599.566230,391.397869 1598.127757,388.270931 1597.738416,384.865311 1598.423354,381.512880 1600.123247,378.524411 1602.662872,376.201028 1605.803041,374.778211 1609.229669,374.392705 1612.606256,375.070806 1615.605872,376.761179 1617.942045,379.279119 1627.718708,376.578623 1626.146743,371.161261 1628.404240,370.712663 1623.061439,360.813016 1615.805287,359.640178 1603.130389,362.044230 1589.914904,366.702735 1586.855204,370.383413 1584.699822,379.113210 1584.592200,392.579059 1587.568424,405.176422 1591.005644,409.064882 1594.969378,410.411179 1601.746890,410.327610 1611.899372,409.084079 1620.901330,406.725313 1627.623564,402.157953 1631.476738,394.536657"/>
    <poly id="1123427071" type="building.aquarium" color="255,230,230" fill="1" layer="-1.00" shape="1605.803041,374.778211 1602.662872,376.201028 1600.123247,378.524411 1598.423354,381.512880 1597.738416,384.865311 1598.127757,388.270931 1599.566230,391.397869 1601.891881,393.915937 1604.902019,395.606178 1608.278602,396.284278 1611.705226,395.898772 1614.845392,394.475956 1617.385016,392.152575 1619.084911,389.164108 1619.769852,385.811679 1629.357623,383.157803 1635.127044,381.558630 1633.299379,375.037141 1627.718708,376.578623 1617.942045,379.279119 1615.605872,376.761179 1612.606256,375.070806 1609.229669,374.392705 1605.803041,374.778211"/>
    <poly id="1123427074" type="leisure.park" color="207,245,201" fill="1" layer="-2.00" shape="1505.135827,139.305321 1511.580272,180.483093 1557.744863,169.250671 1548.788478,130.074827 1505.135827,139.305321"/>
    <poly id="1126013369" type="amenity.hospital" color="237,199,199" fill="1" layer="-1.00" shape="938.633014,345.269008 956.750413,358.243809 960.965914,467.624581 743.561365,468.797159 742.214580,348.075396 938.633014,345.269008"/>
    <poly id="1170351943" type="landuse.industrial" color="209,209,204" fill="1" layer="-3.00" shape="632.339190,630.542428 637.477819,634.963302 641.041153,671.968987 632.339190,630.542428"/>
    <poly id="1170351944" type="landuse.residential" color="235,235,227" fill="1" layer="-3.00" shape="547.273254,349.481476 257.932595,353.145331 249.571979,362.229142 255.248785,819.867840 265.125761,825.281758 552.225304,663.413548 555.040715,657.875451 552.128782,353.983353 547.273254,349.481476"/>
    <poly id="1170351945" type="landuse.residential" color="235,235,227" fill="1" layer="-3.00" shape="568.876348,654.027860 728.635029,563.964896 732.119266,347.137348 564.490683,349.257138 561.162096,354.159356 563.955656,648.508089 568.876348,654.027860"/>
    <poly id="1170351946" type="landuse.residential" color="235,235,227" fill="1" layer="-3.00" shape="954.305336,53.217305 957.400729,323.157007 561.411712,328.422917 555.460663,60.400361 562.817912,54.418481 949.288896,51.873074 954.305336,53.217305"/>
    <poly id="1170351947" type="landuse.residential" color="235,235,227" fill="1" layer="-3.00" shape="550.960225,328.474864 423.921607,329.118769 424.887163,201.491890 547.934020,198.029663 550.960225,328.474864"/>
    <poly id="1170351948" type="landuse.residential" color="235,235,227" fill="1" layer="-3.00" shape="411.502909,329.261612 253.711115,331.029764 251.375221,325.156885 254.833446,262.817916 264.779445,222.001700 298.223319,141.607525 304.945249,137.028588 410.687253,194.658740 411.502909,329.261612"/>
    <poly id="1170351949" type="amenity.parking" color="184,184,179" fill="1" layer="-1.00" shape="407.794890,181.252113 385.803572,169.145197 386.582942,164.086304 407.049428,129.595306 413.189213,123.905266 415.490085,126.955012 411.001494,175.000488 407.794890,181.252113"/>
    <poly id="1170351951" type="amenity.school" color="237,199,199" fill="1" layer="-2.00" shape="488.731941,68.523923 508.700871,61.821067 537.710027,56.689339 542.821125,58.873828 546.942335,185.950374 422.187307,189.179091 421.945449,123.796754 426.608853,112.787889 461.254742,83.458389 488.731941,68.523923"/>
    <poly id="1170351963" type="amenity.college" color="237,199,199" fill="1" layer="-2.00" shape="862.238306,638.072015 943.737471,653.340992 950.084728,618.471614 870.279787,603.181633 747.207571,582.248824 732.263325,583.275342 656.191513,618.742345 653.447436,624.943910 661.182298,657.125534 721.869994,633.076852 769.793575,627.157608 800.295364,628.740017 862.238306,638.072015"/>
    <poly id="1170351964" type="amenity.college" color="237,199,199" fill="1" layer="-2.00" shape="978.589680,320.647240 1075.714746,314.131738 1097.829565,448.725546 992.475910,462.196835 984.803331,389.886394 978.589680,320.647240"/>
    <poly id="1170351965" type="landuse.industrial" color="209,209,204" fill="1" layer="-3.00" shape="1073.032807,58.770027 1073.324061,82.340483 1093.987100,223.806311 1161.631002,214.832063 1160.497874,168.262684 1217.532073,168.676607 1217.923569,109.177506 1156.921655,107.118429 1155.705283,77.668668 1212.524925,83.699179 1229.701250,79.279401 1219.756523,6.155503"/>
    <poly id="1170351968" type="leisure.sports_centre" color="207,245,201" fill="1" layer="-2.00" shape="905.103984,712.538146 992.947767,728.503917 993.660952,695.099403 910.345631,680.195954 905.103984,712.538146"/>
    <poly id="1170351968#1" type="sport.tennis;squash;swimming" color="79,230,125" fill="1" layer="-2.00" shape="905.103984,712.538146 992.947767,728.503917 993.660952,695.099403 910.345631,680.195954 905.103984,712.538146"/>
    <poly id="1170351969" type="natural.water" color="181,209,209" fill="1" layer="-4.00" shape="982.843772,685.987336 1019.272786,691.095476 1016.862225,674.903567 981.514684,669.582744 982.843772,685.987336"/>
    <poly id="1170351970" type="natural.water" color="181,209,209" fill="1" layer="-4.00" shape="1019.272786,691.095476 1108.360838,700.435930 1107.937950,689.213302 1016.862225,674.903567 1019.272786,691.095476"/>
    <poly id="1170351971" type="amenity.college" color="237,199,199" fill="1" layer="-2.00" shape="1009.227943,629.521797 1118.751307,651.177356 1120.091763,689.804980 1107.937950,689.213302 1016.862225,674.903567 1009.227943,629.521797"/>
    <poly id="1170351977" type="landuse.residential" color="235,235,227" fill="1" layer="-3.00" shape="222.580963,325.514041 215.883204,339.670771 200.953643,38.972279 216.879632,48.319573 222.580963,325.514041"/>
    <poly id="1170351978" type="landuse.residential" color="235,235,227" fill="1" layer="-3.00" shape="555.013897,40.474736 954.128481,38.060776 949.718555,40.650976 558.714732,42.676694 555.013897,40.474736"/>
    <poly id="1170351979" type="landuse.residential" color="235,235,227" fill="1" layer="-3.00" shape="70.742791,784.830945 220.694279,355.855024"/>
    <poly id="1170351980" type="amenity.college" color="237,199,199" fill="1" layer="-2.00" shape="743.951193,478.182117 957.407113,480.302700 961.700478,484.468364 971.373025,605.297422 743.600229,563.779655 743.951193,478.182117"/>
    <poly id="1219692635" type="building.yes" color="255,230,230" fill="1" layer="-1.00" shape="1712.956262,215.182920 1711.128888,202.704262 1712.956262,215.182920"/>
    <poly id="1281399218" type="leisure.playground" color="207,245,201" fill="1" layer="-2.00" shape="22.628024,295.518610 45.436677,295.445836 45.662480,263.608434 21.814497,263.904491 22.628024,295.518610"/>
    <poly id="1281399219" type="building.construction" color="255,230,230" fill="1" layer="-1.00" shape="31.229710,247.355413 50.684007,246.704213 50.566585,220.285723 30.699340,220.742735 31.229710,247.355413"/>
    <poly id="1281399220" type="building.house" color="255,230,230" fill="1" layer="-1.00" shape="16.289435,185.986613 17.470244,208.184201 4.330405,209.598574 2.604043,186.699092 16.289435,185.986613"/>
    <poly id="1281399221" type="building.house" color="255,230,230" fill="1" layer="-1.00" shape="110.093605,400.334138 137.003578,400.819570 137.217142,389.190376 110.296765,388.716143 110.093605,400.334138"/>
    <poly id="1281399222" type="building.house" color="255,230,230" fill="1" layer="-1.00" shape="97.286419,475.179819 96.649499,462.874657 73.556496,462.917702 73.715368,475.716008 97.286419,475.179819"/>
    <poly id="1281399223" type="building.house" color="255,230,230" fill="1" layer="-1.00" shape="50.162085,511.596723 49.926189,501.921931 30.617439,502.405263 30.853345,512.080056 50.162085,511.596723"/>
    <poly id="1281399224" type="building.house" color="255,230,230" fill="1" layer="-1.00" shape="137.871395,454.634164 137.878043,443.295433 119.226079,443.272233 119.209055,454.622168 137.871395,454.634164"/>
    <poly id="1281399225" type="building.house" color="255,230,230" fill="1" layer="-1.00" shape="183.379977,493.267518 183.354803,481.907038 158.683217,481.969566 158.708406,493.330047 183.379977,493.267518"/>
    <poly id="1281399226" type="building.house" color="255,230,230" fill="1" layer="-1.00" shape="128.886232,573.679701 128.787562,557.248740 144.680175,557.151159 144.778830,573.582119 128.886232,573.679701"/>
    <poly id="1281399227" type="building.house" color="255,230,230" fill="1" layer="-1.00" shape="121.702092,596.125056 121.602565,581.321821 143.441536,581.172579 143.541182,595.986884 121.702092,596.125056"/>
    <poly id="1281399228" type="building.yes" color="255,230,230" fill="1" layer="-1.00" shape="82.646361,790.695747 105.257736,790.891175 105.361115,779.717329 82.749589,779.510829 82.646361,790.695747"/>
    <poly id="1282468081" type="landuse.construction" color="194,194,130" fill="1" layer="-3.00" shape="146.109341,15.757337 158.333868,12.671358 146.109341,15.757337"/>
    <poly id="1282468091" type="landuse.grass" color="194,194,130" fill="1" layer="-3.00" shape="243.287086,257.767936 240.886817,194.936912 263.549955,191.610798 243.287086,257.767936"/>
    <poly id="1282468092" type="building.house" color="255,230,230" fill="1" layer="-1.00" shape="173.141868,334.908181 173.133111,321.476867 185.490334,321.467501 185.499082,334.898814 173.141868,334.908181"/>
    <poly id="1282468093" type="building.apartments" color="255,230,230" fill="1" layer="-1.00" shape="203.565602,384.447337 202.836976,359.653094 218.925180,359.187764 219.653784,383.982006 203.565602,384.447337"/>
    <poly id="1282468094" type="building.construction" color="255,230,230" fill="1" layer="-1.00" shape="150.245551,436.487146 150.161807,422.104490 183.725982,421.898406 183.809837,436.292131 150.245551,436.487146"/>
    <poly id="1282468095" type="building.house" color="255,230,230" fill="1" layer="-1.00" shape="113.317716,512.540125 135.796680,512.216847 135.599543,498.876448 113.131225,499.210665 113.317716,512.540125"/>
    <poly id="1282468096" type="building.house" color="255,230,230" fill="1" layer="-1.00" shape="136.548689,535.493824 136.619323,518.285660 120.188022,518.234909 120.117267,535.432004 136.548689,535.493824"/>
    <poly id="1282468097" type="building.house" color="255,230,230" fill="1" layer="-1.00" shape="111.439060,536.724515 111.355793,519.839372 96.473323,519.913367 96.556603,536.798511 111.439060,536.724515"/>
    <poly id="1282468098" type="building.house" color="255,230,230" fill="1" layer="-1.00" shape="89.278400,536.401646 89.153407,521.244393 70.788003,521.405934 70.923535,536.563058 89.278400,536.401646"/>
    <poly id="1282468099" type="building.house" color="255,230,230" fill="1" layer="-1.00" shape="110.384346,573.865049 121.919564,573.788313 121.823063,559.228644 110.287835,559.305379 110.384346,573.865049"/>
    <poly id="1282468100" type="building.yes" color="255,230,230" fill="1" layer="-1.00" shape="-13.052182,566.960018 -13.112641,557.006222 4.179690,556.891137 4.240003,566.833861 -13.052182,566.960018"/>
    <poly id="1282468101" type="building.house" color="255,230,230" fill="1" layer="-1.00" shape="-12.965048,476.504326 -13.106245,465.134201 3.763970,464.924711 3.905156,476.294836 -12.965048,476.504326"/>
    <poly id="1327051159" type="building.apartments" color="255,230,230" fill="1" layer="-1.00" shape="1157.867571,612.249134 1163.511342,629.453018 1174.204502,625.976909 1168.550353,608.784224 1157.867571,612.249134"/>
    <poly id="1327051160" type="building.apartments" color="255,230,230" fill="1" layer="-1.00" shape="1152.778757,587.996074 1158.713132,607.422006 1170.541939,603.854355 1164.607576,584.428421 1152.778757,587.996074"/>
    <poly id="1327051161" type="building.apartments" color="255,230,230" fill="1" layer="-1.00" shape="1146.127215,566.751987 1151.183841,583.287682 1166.588495,578.635002 1161.542270,562.088104 1146.127215,566.751987"/>
    <poly id="1327051194" type="building.yes" color="255,230,230" fill="1" layer="-1.00" shape="1136.815031,702.431734 1137.198194,718.958739 1169.660164,718.203294 1169.277030,701.676291 1136.815031,702.431734"/>
    <poly id="1327051195" type="building.yes" color="255,230,230" fill="1" layer="-1.00" shape="1110.033023,748.017382 1151.870529,747.046374 1151.507066,731.261007 1137.491105,731.589222 1137.198194,718.958739 1136.815031,702.431734 1108.982744,703.063579 1110.033023,748.017382"/>
    <poly id="1327051324" type="building.apartments" color="255,230,230" fill="1" layer="-1.00" shape="745.319834,446.740408 745.355014,465.740996 762.269445,465.708819 762.234282,446.708233 745.319834,446.740408"/>
    <poly id="1327051325" type="building.apartments" color="255,230,230" fill="1" layer="-1.00" shape="745.273994,427.728880 745.319834,446.740408 762.234282,446.708233 762.198984,427.696577 745.273994,427.728880"/>
    <poly id="1327051326" type="building.apartments" color="255,230,230" fill="1" layer="-1.00" shape="745.238682,408.717222 745.273994,427.728880 762.198984,427.696577 762.163689,408.684920 745.238682,408.717222"/>
    <poly id="1327051327" type="building.apartments" color="255,230,230" fill="1" layer="-1.00" shape="745.203372,389.705564 745.238682,408.717222 762.163689,408.684920 762.128396,389.673264 745.203372,389.705564"/>
    <poly id="1327051328" type="building.apartments" color="255,230,230" fill="1" layer="-1.00" shape="813.151708,464.935219 813.095312,437.408806 772.898629,437.496514 772.875305,425.405244 812.766814,425.321316 812.688316,384.098059 824.129573,384.078303 824.197909,424.482292 828.986934,424.467332 829.066206,464.904404 813.151708,464.935219"/>
    <poly id="1327051329" type="building.apartments" color="255,230,230" fill="1" layer="-1.00" shape="815.710655,178.327104 818.683999,179.585844 829.188859,179.588763 832.932463,178.446241 839.806452,178.494082 839.879597,168.239720 815.783924,168.083813 815.710655,178.327104"/>
    <poly id="1330349899" type="building.yes" color="255,230,230" fill="1" layer="-1.00" shape="1243.771628,471.149944 1242.933064,459.500618 1228.325645,460.533632 1229.153830,472.194160 1243.771628,471.149944"/>
    <poly id="1330349899#1" type="shop.supermarket" color="237,199,255" fill="1" layer="-1.00" shape="1243.771628,471.149944 1242.933064,459.500618 1228.325645,460.533632 1229.153830,472.194160 1243.771628,471.149944"/>
    <poly id="1330474697" type="leisure.pitch" color="207,245,201" fill="1" layer="-2.00" shape="779.315749,688.106565 790.003777,689.325176 792.617129,666.604550 781.918564,665.386067 779.315749,688.106565"/>
    <poly id="1330474697#1" type="sport.tennis" color="79,230,125" fill="1" layer="-2.00" shape="779.315749,688.106565 790.003777,689.325176 792.617129,666.604550 781.918564,665.386067 779.315749,688.106565"/>
    <poly id="1330474698" type="leisure.pitch" color="207,245,201" fill="1" layer="-2.00" shape="796.111683,690.423308 806.799571,691.630857 809.402418,668.910366 798.714517,667.702814 796.111683,690.423308"/>
    <poly id="1330474698#1" type="sport.tennis" color="79,230,125" fill="1" layer="-2.00" shape="796.111683,690.423308 806.799571,691.630857 809.402418,668.910366 798.714517,667.702814 796.111683,690.423308"/>
    <poly id="1330474699" type="leisure.pitch" color="207,245,201" fill="1" layer="-2.00" shape="812.760773,691.080955 823.448658,692.288513 826.062050,669.567896 815.363627,668.360465 812.760773,691.080955"/>
    <poly id="1330474699#1" type="sport.tennis" color="79,230,125" fill="1" layer="-2.00" shape="812.760773,691.080955 823.448658,692.288513 826.062050,669.567896 815.363627,668.360465 812.760773,691.080955"/>
    <poly id="1351507368" type="building.yes" color="255,230,230" fill="1" layer="-1.00" shape="72.557332,263.706432 72.596734,274.513095 89.479563,274.458569 89.466478,270.860038 92.129390,270.849134 92.081160,266.963144 92.116412,264.714908 88.443033,264.727281 88.440229,263.653244 72.557332,263.706432"/>
    <poly id="1356803745" type="leisure.park" color="207,245,201" fill="1" layer="-2.00" shape="440.370763,818.911995"/>
    <poly id="202564782" type="natural.water" color="181,209,209" fill="1" layer="-4.00" shape="981.514684,669.582744 791.902643,636.938137 768.789405,635.319659 747.628940,636.699929 724.769459,641.976757 694.912209,647.395617 668.296344,659.573130 490.863326,767.229125 662.323394,678.725637 691.738959,664.841446 714.030110,659.571608 732.058150,655.982282 751.194174,650.917642 785.999232,650.664028 822.458392,657.343765 982.843772,685.987336 981.514684,669.582744"/>
    <poly id="202565724" type="natural.water" color="181,209,209" fill="1" layer="-4.00" shape="1108.360838,700.435930 1107.937950,689.213302 1120.091763,689.804980 1146.315526,687.620688 1157.576541,684.956938 1177.835790,679.646342 1206.247023,674.755488 1222.927106,677.074046 1241.343243,681.895780 1264.825074,686.101327 1279.512820,686.473577 1310.857778,683.905167 1337.717766,687.216486 1375.613525,692.639393 1397.711589,702.420739 1426.016436,707.674235 1431.010607,720.025223 1439.553665,729.962832 1448.863914,729.571117 1465.727769,722.907568 1480.101423,717.448480 1490.224144,725.749989 1473.154214,726.802143 1463.064207,733.094203 1453.262045,738.829077 1440.268573,738.424711 1432.895284,736.278998 1399.025965,713.399821 1386.794712,706.530631 1381.787786,701.676105 1369.583030,701.217759 1348.885182,699.989520 1338.694864,697.302833 1314.918675,692.270369 1305.597878,692.662280 1263.785563,693.123263 1252.926477,690.832430 1248.526231,689.934514 1233.498692,686.765061 1216.260720,685.294921 1197.058053,684.967424 1172.905235,692.053465 1149.246891,696.564533 1136.561720,698.116459 1108.360838,700.435930"/>
    <poly id="202565733" type="building.hospital" color="255,230,230" fill="1" layer="-1.00" shape="1013.374908,612.484788 1014.314247,595.664603 1021.464860,596.816358 1021.511396,600.580548 1049.860568,605.135360 1050.760897,599.632103 1062.878850,601.575080 1062.037830,606.767563 1084.934434,610.448635 1085.580580,606.520865 1094.861408,608.000650 1090.995107,625.609950 1013.374908,612.484788"/>
    <poly id="230784894" type="building.yes" color="255,230,230" fill="0" layer="-1.00" shape="222.595712,819.641803 195.013850,820.094778"/>
    <poly id="235772493" type="building.apartments" color="255,230,230" fill="0" layer="-1.00" shape="655.209207,803.759963 613.883733,808.678788"/>
    <poly id="235772566" type="amenity.school" color="237,199,199" fill="0" layer="-2.00" shape="567.818657,800.601507 523.779261,820.945457"/>
    <poly id="246289916" type="building.hotel" color="255,230,230" fill="1" layer="-1.00" shape="908.209131,708.292053 913.421610,684.653483 986.864596,698.759970 983.060597,722.248218 908.209131,708.292053"/>
    <poly id="246289917" type="building.apartments" color="255,230,230" fill="1" layer="-1.00" shape="947.510229,646.052692 952.201432,625.365965 971.303680,629.481369 970.505158,633.001335 976.165050,634.470472 972.289851,652.201723 947.510229,646.052692"/>
    <poly id="246289919" type="building.apartments" color="255,230,230" fill="1" layer="-1.00" shape="911.361151,618.485484 941.490561,624.003593 939.670368,638.531532 928.112106,636.736735 927.479962,641.793772 909.720853,639.045906 909.340544,641.486636 905.375305,640.871313 905.619644,639.351310 905.836793,638.185975 866.300413,632.053493 868.554566,620.277311 897.736697,625.795997 898.633461,621.710096 910.862536,623.275121 911.361151,618.485484"/>
    <poly id="246289922" type="building.apartments" color="white" fill="1" layer="0.00" shape="1017.444916,524.516122 1035.779847,522.750339 1032.699110,502.580493 1014.794003,504.208089 1017.444916,524.516122"/>
    <poly id="246289927" type="building.apartments" color="255,230,230" fill="1" layer="-1.00" shape="1063.931129,539.388096 1062.352729,525.799090 1084.762233,523.274333 1086.205583,537.008955 1063.931129,539.388096"/>
    <poly id="246289930" type="building.college" color="255,230,230" fill="1" layer="-1.00" shape="997.492027,405.630118 1014.371327,403.605503 1009.036629,359.479755 1037.655986,356.058808 1036.961272,339.026301 1034.865916,333.006432 989.356772,338.463197 997.492027,405.630118"/>
    <poly id="246289931" type="building.apartments" color="255,230,230" fill="1" layer="-1.00" shape="985.564109,307.539355 986.187582,289.006788 1008.772500,288.727589 1009.008442,307.814243 985.564109,307.539355"/>
    <poly id="246289932" type="building.apartments" color="255,230,230" fill="1" layer="-1.00" shape="1014.662993,302.883369 1034.150236,303.207205 1034.472226,283.272122 1015.269253,282.955842 1014.662993,302.883369"/>
    <poly id="246289933" type="building.apartments" color="255,230,230" fill="1" layer="-1.00" shape="1045.560775,303.254409 1045.595341,283.057132 1062.532188,283.124628 1062.237931,304.454542 1045.560775,303.254409"/>
    <poly id="246289935" type="building.apartments" color="255,230,230" fill="1" layer="-1.00" shape="986.191270,273.128292 986.804226,254.595856 1002.334419,254.968584 1001.447559,274.334867 986.191270,273.128292"/>
    <poly id="246289936" type="building.apartments" color="255,230,230" fill="1" layer="-1.00" shape="1006.548923,274.039275 1006.798095,249.066948 1024.590859,249.400654 1023.773493,274.391074 1006.548923,274.039275"/>
    <poly id="246289938" type="building.apartments" color="255,230,230" fill="1" layer="-1.00" shape="1041.520416,272.721177 1039.905603,256.187248 1055.151498,256.552462 1055.068481,272.830553 1041.520416,272.721177"/>
    <poly id="246289939" type="building.apartments" color="255,230,230" fill="1" layer="-1.00" shape="1116.254400,376.712703 1112.190074,343.378339 1100.650011,344.772165 1099.022302,331.449517 1110.835729,330.030167 1106.759638,296.596294 1132.236058,293.513309 1133.851987,306.736448 1152.234148,304.516238 1158.160758,353.130243 1140.661443,355.239889 1142.886858,373.493635 1116.254400,376.712703"/>
    <poly id="246289940" type="building.apartments" color="255,230,230" fill="1" layer="-1.00" shape="1114.750093,410.005147 1113.720755,395.700696 1155.726864,390.420376 1157.594542,404.426576 1114.750093,410.005147"/>
    <poly id="246289941" type="building.apartments" color="255,230,230" fill="1" layer="-1.00" shape="1013.052616,239.876690 1012.813265,220.513258 1033.696883,219.690414 1033.943191,239.618472 1013.052616,239.876690"/>
    <poly id="246289942" type="building.apartments" color="255,230,230" fill="1" layer="-1.00" shape="1043.727252,246.030517 1042.632174,225.559308 1055.598146,224.557527 1056.423138,245.319966 1043.727252,246.030517"/>
    <poly id="246289943" type="building.apartments" color="255,230,230" fill="1" layer="-1.00" shape="984.161929,236.690524 990.748990,244.182913 1003.427498,242.066289 1004.421798,231.390857 999.529140,223.877517 988.229661,223.452486 984.161929,236.690524"/>
    <poly id="246289944" type="building.apartments" color="255,230,230" fill="1" layer="-1.00" shape="986.588817,214.182660 987.187959,194.532040 1003.282954,194.609899 1003.245138,214.541472 986.588817,214.182660"/>